/*--------------------------------*- C++ -*----------------------------------*\
  =========                 |
  \\      /  F ield         | OpenFOAM: The Open Source CFD Toolbox
   \\    /   O peration     | Website:  https://openfoam.org
    \\  /    A nd           | Version:  6
     \\/     M anipulation  |
\*---------------------------------------------------------------------------*/
FoamFile
{
    version     2.0;
    format      ascii;
    class       dictionary;
    object      blockMeshDict;
}
// * * * * * * * * * * * * * * * * * * * * * * * * * * * * * * * * * * * * * //

convertToMeters 0.0001;

vertices
(
    ( 9 0 0)        //0
    (10 0 0)		//1
    (19 0 0)		//2
    (54 0 0)		//3
    
    ( 9  1.75 #calc "-0.03/0.75*1.75")	//4
    (10  0.75 -0.03)	//5
    ( 9  1.75 #calc " 0.03/0.75*1.75")	//6
    (10  0.75  0.03)	//7
    
    (19  0.75 -0.03)	//8
    (54  0.75 -0.03)	//9
    (19  0.75  0.03)	//10
    (54  0.75  0.03)	//11
    
    ( 9  8 #calc "-0.03/0.75*8")	//12
    (10  8 #calc "-0.03/0.75*8")	//13
    ( 9  8 #calc "0.03/0.75*8")		//14
    (10  8 #calc "0.03/0.75*8")		//15

    (19  25 #calc "-0.03/0.75*25")	//16
    (54  25 #calc "-0.03/0.75*25")	//17
    (19  25 #calc "0.03/0.75*25")	//18
    (54  25 #calc "0.03/0.75*25")	//19   
    
    (3 0 0)  //20
    (6 0 0)  //21
    
    (3 1.75 #calc "-0.03/0.75*1.75")  //22
    (6 1.75 #calc "-0.03/0.75*1.75")  //23
    (3 1.75 #calc " 0.03/0.75*1.75")  //24
    (6 1.75 #calc " 0.03/0.75*1.75")  //25
    
    (3 4.75 #calc "-0.03/0.75*4.75")  //26
    (6 4.75 #calc "-0.03/0.75*4.75")  //27
    (3 4.75 #calc " 0.03/0.75*4.75")  //28
    (6 4.75 #calc " 0.03/0.75*4.75")  //29
    
    (3 7.75 #calc "-0.03/0.75*7.75")  //30
    (#calc "3+6*0.7071067812" #calc "1.75+6*0.7071067812" #calc "-0.03/0.75*(1.75+6*0.7071067812)")  //31
    (3 7.75 #calc " 0.03/0.75*7.75")  //32
    (#calc "3+6*0.7071067812" #calc "1.75+6*0.7071067812" #calc " 0.03/0.75*(1.75+6*0.7071067812)")  //33

);

blocks
(    
    hex (0 1 5 4 0 1 7 6) (8 6 1) simpleGrading (1 1 1) //inlet
    hex (21 0 4 23 21 0 6 25) (24 6 1) simpleGrading (1 1 1) 
    hex (23 4 31 27 25 6 33 29) (24 24 1) simpleGrading (1 1 1) 
    hex (20 21 23 22 20 21 25 24) (24 6 1) simpleGrading (1 1 1) 
    hex (22 23 27 26 24 25 29 28) (24 24 1) simpleGrading (1 1 1) 
    hex (26 27 31 30 28 29 33 32) (24 24 1) simpleGrading (1 1 1) 
    hex (1 2 8 5 1 2 10 7) (72 6 1) simpleGrading (1 1 1)  //nozzle
    hex (2 3 9 8 2 3 11 10) (140 6 1) simpleGrading (1 1 1)
    hex (8 9 17 16 10 11 19 18) (140 97 1) simpleGrading (1 1 1)  //outlet
);

edges
(
	//arc 4 5 (#calc "10-1*0.7071067812" #calc "1.75-1*0.7071067812" #calc "-0.03/0.75*(1.75-1*0.7071067812)")
	//arc 6 7 (#calc "10-1*0.7071067812" #calc "1.75-1*0.7071067812" #calc " 0.03/0.75*(1.75-1*0.7071067812)")
	
	arc 4 31 (#calc "3+6*0.8" #calc "1.75+6*0.6" #calc "-0.03/0.75*(1.75+6*0.6)")
	arc 6 33 (#calc "3+6*0.8" #calc "1.75+6*0.6" #calc " 0.03/0.75*(1.75+6*0.6)")
	
	arc 30 31 (#calc "3+6*0.6" #calc "1.75+6*0.8" #calc "-0.03/0.75*(1.75+6*0.8)")
	arc 32 33 (#calc "3+6*0.6" #calc "1.75+6*0.8" #calc " 0.03/0.75*(1.75+6*0.8)")

);

boundary
(
    inlet
    {
        type patch;
        faces
        (
            //(0 6 4 0)
            //(4 6 14 12)
            (20 24 22 20)
            (24 28 26 22)
            (28 32 30 26)
        );
    }

    outlet
    {
        type patch;
        faces
        (
            (3 9 11 3)
            (9 17 19 11)
            (18 19 17 16)
        );
    }

    nozzleWalls
    {
        type wall;
        faces
        (
            //(14 15 13 12)
            //(5 13 15 7)
            (30 32 33 31)
            (31 33 6 4)
            (4 6 7 5)
            (5 7 10 8)
            
        );
    }

    tipWalls
    {
        type patch;
        faces
        (
            (8 10 18 16)
            
        );
    }

    wedge1
    {
        type wedge;
        faces
        (
            (0 4 5 1)
            //(4 12 13 5)
            (1 5 8 2)
            (2 8 9 3)
            (8 16 17 9)
            
            (21 20 22 23)
            (0 21 23 4)
            (22 26 27 23)
            (4 23 27 31)
            (31 27 26 30)
        );
    }

    wedge2
    {
        type wedge;
        faces
        (
            (0 1 7 6)
            //(6 7 15 14)
            (1 2 10 7)
            (2 3 11 10)
            (10 11 19 18)
            
            (0 6 25 21)
            (21 25 24 20)
            (24 25 29 28)
            (25 6 33 29)
            (29 33 32 28)
        );
    }
);

mergePatchPairs
(
);

// ************************************************************************* //
