/*--------------------------------*- C++ -*----------------------------------*\
| =========                 |                                                 |
| \\      /  F ield         | OpenFOAM: The Open Source CFD Toolbox           |
|  \\    /   O peration     | Version:  2.3.0                                 |
|   \\  /    A nd           | Web:      www.OpenFOAM.org                      |
|    \\/     M anipulation  |                                                 |
\*---------------------------------------------------------------------------*/
FoamFile
{
    version     2.0;
    format      ascii;
    class       dictionary;
    location    "system";
    object      fvSolution;
}
// * * * * * * * * * * * * * * * * * * * * * * * * * * * * * * * * * * * * * //

asymmSolver PBiCGStab;

solvers
{
    "(rho|U|h|p|C0|Yi|Y.Liq|k|omega).*"
    {
        solver          PBiCGStab;
        preconditioner	DILU;
        tolerance       1e-15;
        relTol          0.0;
    }
}

PIMPLE
{
    momentumPredictor           false;
    nCorrectors                 1;
    nOuterCorrectors            3;
    nonOrthogonalityThreshold   60;
    skewnessThreshold           0.5;
    updateEnergyInPISO          false;
    fluxScheme                  HLL;//Kurganov; //Tadmor;

    kappaFunction
    {	
        //type sonicCourantInverse;
        sonicCourantInverseCoeffs
        {
            writeMaxMin true;
        }
		
        type standardMachToAcCourantRatio;
        standardMachToAcCourantRatioCoeffs
        {
            writeMaxMin true;
        }
    }
}

// ************************************************************************* //
