/*--------------------------------*- C++ -*----------------------------------*\
  =========                 |
  \\      /  F ield         | OpenFOAM: The Open Source CFD Toolbox
   \\    /   O peration     | Website:  https://openfoam.org
    \\  /    A nd           | Version:  11
     \\/     M anipulation  |
\*---------------------------------------------------------------------------*/
FoamFile
{
	version	2.0;        
	format      ascii;
    class       volScalarField;
    location    "0";
    object      alphat;
}
// * * * * * * * * * * * * * * * * * * * * * * * * * * * * * * * * * * * * * //

dimensions      [1 -1 -1 0 0 0 0];

internalField   uniform 0;

boundaryField
{
    inlet
    {
        type            calculated;
        value           $internalField;
    }

    outlet
    {
        type            calculated;
        value           $internalField;
    }

    wedge1
    {
        type            wedge;
    }
    
     wedge2
    {
        type            wedge;
    }
    
    nozzleWalls
    {
        type            compressible::alphatWallFunction;
        Prt             0.85;
        value           $internalField;
    }
    
    tipWalls
    {
       type            compressible::alphatWallFunction;
        Prt             0.85;
        value           $internalField;
    }
}


// ************************************************************************* //
