/*--------------------------------*- C++ -*----------------------------------*\
  =========                 |
  \\      /  F ield         | OpenFOAM: The Open Source CFD Toolbox
   \\    /   O peration     | Website:  https://openfoam.org
    \\  /    A nd           | Version:  11
     \\/     M anipulation  |
\*---------------------------------------------------------------------------*/
FoamFile
{
	version	2.0;    
	format      ascii;
    class       volScalarField;
    location    "0";
    object      k;
}
// * * * * * * * * * * * * * * * * * * * * * * * * * * * * * * * * * * * * * //

dimensions      [0 2 -2 0 0 0 0];

internalField   uniform 5;

boundaryField
{
    inlet
    {
        type            turbulentIntensityKineticEnergyInlet;
        intensity       0.05;
        value           uniform 0.05;
    }

    outlet
    {
        type            zeroGradient;
    }

        wedge1
    {
        type            wedge;
    }
    
     wedge2
    {
        type            wedge;
    }

    nozzleWalls
    {
        type            kqRWallFunction;
        value           uniform 0;
    }
    
    tipWalls
    {
       type            kqRWallFunction;
        value           uniform 0;
    }
}


// ************************************************************************* //
