/*--------------------------------*- C++ -*----------------------------------*\
  =========                 |
  \\      /  F ield         | OpenFOAM: The Open Source CFD Toolbox
   \\    /   O peration     | Website:  https://openfoam.org
    \\  /    A nd           | Version:  11
     \\/     M anipulation  |
\*---------------------------------------------------------------------------*/
FoamFile
{
	version	2.0;        
	format      ascii;
    class       volScalarField;
    location    "0";
    object      omega;
}
// * * * * * * * * * * * * * * * * * * * * * * * * * * * * * * * * * * * * * //

dimensions      [0 0 -1 0 0 0 0];

internalField   uniform 7200;

boundaryField
{
    inlet
    {
        type            turbulentMixingLengthFrequencyInlet;
        mixingLength    0.0005;
        k               k;
        value           uniform 7200;
    }

    outlet
    {
        type            zeroGradient;
    }

    wedge1
    {
        type            wedge;
    }
    
    wedge2
    {
        type            wedge;
    }

    nozzleWalls
    {
        type            omegaWallFunction;
        value           uniform 7200;
    }
    
    tipWalls
    {
         type            omegaWallFunction;
        value           uniform 7200;
    }
}


// ************************************************************************* //
